# title of job
title                           = Tape-Liu-Tromp (GJI 2007)

# forward or adjoint simulation
SIMULATION_TYPE                 = 1   # 1 = forward, 3 = adjoint + kernels
NOISE_TOMOGRAPHY                = 0   # 0 = earthquake simulation, 1/2/3 = noise simulation
SAVE_FORWARD                    = .false.  # save the last frame, needed for adjoint simulation

# parameters concerning partitioning
nproc                           = 1              # number of processes
partitioning_method             = 3              # SCOTCH = 3, ascending order (very bad idea) = 1
PERFORM_CUTHILL_MCKEE           = .false.        # perform inverse Cuthill-McKee (1969) optimization/permutation for mesh numbering (can be very costly and not very useful)

ngnod                           = 4              # number of control nodes per element (4 or 9)
initialfield                    = .false.        # use a plane wave as source or not
add_Bielak_conditions           = .false.        # add Bielak conditions or not if initial plane wave
assign_external_model           = .true.        # define external earth model or not
READ_EXTERNAL_SEP_FILE          = .true.        # Read external SEP file from DATA/model_velocity.dat_input, or use routine
ATTENUATION_VISCOELASTIC_SOLID  = .false.        # turn attenuation (viscoelasticity) on or off for non-poroelastic solid parts of the model
ATTENUATION_PORO_FLUID_PART     = .false.        # turn viscous attenuation on or off for the fluid part of poroelastic parts of the model
Q0                              =  1             # quality factor for viscous attenuation
freq0                           =  10            # frequency for viscous attenuation
p_sv                            = .false.        # set the type of calculation (P-SV or SH/membrane waves)

# time step parameters
nt                              = 4800           # total number of time steps
deltat                          = 6.0d-2         # duration of a time step (see section "How to choose the time step" of the manual for how to do this)
USER_T0                         = 48.0d0         # use this t0 as earliest starting time rather than the automatically calculated one
time_stepping_scheme            = 1   # 1 = Newmark (2nd order),     2 = LDDRK4-6 (4th-order 6-stage low storage Runge-Kutta),     3 = classical 4th-order 4-stage Runge-Kutta

# source parameters
NSOURCES                        = 1              # number of sources [source info read in CMTSOLUTION file]
force_normal_to_surface         = .false.        # angleforce normal to surface (external mesh and curve file needed)

# constants for attenuation
N_SLS                           = 2                      # number of standard linear solids for attenuation
f0_attenuation                  = 5.196152422706633      # (Hz) relevant only if source is a Dirac or a Heaviside, else it is f0

# receiver set parameters for seismograms
seismotype                      = 1              # record 1=displ 2=veloc 3=accel 4=pressure 5=curl of displ 6=the fluid potential
NSTEP_BETWEEN_OUTPUT_SEISMOS    = 5000000        # every how many time steps we save the seismograms (costly, do not use a very small value; if you use a very large value that is larger than the total number of time steps of the run, the seismograms will automatically be saved once at the end of the run anyway)
save_ASCII_seismograms          = .true.         # save seismograms in ASCII format or not
save_binary_seismograms_single  = .true.         # save seismograms in single precision binary format or not (can be used jointly with ASCII above to save both)
save_binary_seismograms_double  = .false.        # save seismograms in double precision binary format or not (can be used jointly with both flags above to save all)
SU_FORMAT                       = .false.        # output single precision binary seismograms in Seismic Unix format (adjoint traces will be read in the same format)
subsamp_seismos                 = 1              # subsampling of the seismograms to create smaller files (but less accurately sampled in time)
use_existing_STATIONS           = .false.        # use an existing STATION file found in ./DATA or create a new one from the receiver positions below in this Par_file
nreceiversets                   = 132            # number of receiver sets
anglerec                        = 0.d0           # angle to rotate components at receivers
rec_normal_to_surface           = .false.        # base anglerec normal to surface (external mesh and curve file needed)
save_ASCII_kernels              = .true.         # save sensitivity kernels in ASCII format (much bigger files, but compatible with current GMT scripts) or in binary format

# first receiver set
nrec                            =              1  # number of receivers
xdeb                            =      243609.66  # first receiver x in meters
zdeb                            =      278904.04  # first receiver z in meters
xfin                            =      243609.66  # last receiver x in meters (ignored if only one receiver)
zfin                            =      278904.04  # last receiver z in meters (ignored if only one receiver)
enreg_surf_same_vertical        = .false.         # receivers inside the medium or at the surface
nrec                            =              1  # number of receivers
xdeb                            =      338980.55  # first receiver x in meters
zdeb                            =      177848.88  # first receiver z in meters
xfin                            =      338980.55  # last receiver x in meters (ignored if only one receiver)
zfin                            =      177848.88  # last receiver z in meters (ignored if only one receiver)
enreg_surf_same_vertical        = .false.         # receivers inside the medium or at the surface
nrec                            =              1  # number of receivers
xdeb                            =      164437.57  # first receiver x in meters
zdeb                            =      294733.28  # first receiver z in meters
xfin                            =      164437.57  # last receiver x in meters (ignored if only one receiver)
zfin                            =      294733.28  # last receiver z in meters (ignored if only one receiver)
enreg_surf_same_vertical        = .false.         # receivers inside the medium or at the surface
nrec                            =              1  # number of receivers
xdeb                            =       92224.91  # first receiver x in meters
zdeb                            =      368887.27  # first receiver z in meters
xfin                            =       92224.91  # last receiver x in meters (ignored if only one receiver)
zfin                            =      368887.27  # last receiver z in meters (ignored if only one receiver)
enreg_surf_same_vertical        = .false.         # receivers inside the medium or at the surface
nrec                            =              1  # number of receivers
xdeb                            =      290702.42  # first receiver x in meters
zdeb                            =      246865.07  # first receiver z in meters
xfin                            =      290702.42  # last receiver x in meters (ignored if only one receiver)
zfin                            =      246865.07  # last receiver z in meters (ignored if only one receiver)
enreg_surf_same_vertical        = .false.         # receivers inside the medium or at the surface
nrec                            =              1  # number of receivers
xdeb                            =      285185.54  # first receiver x in meters
zdeb                            =      209064.62  # first receiver z in meters
xfin                            =      285185.54  # last receiver x in meters (ignored if only one receiver)
zfin                            =      209064.62  # last receiver z in meters (ignored if only one receiver)
enreg_surf_same_vertical        = .false.         # receivers inside the medium or at the surface
nrec                            =              1  # number of receivers
xdeb                            =      426783.24  # first receiver x in meters
zdeb                            =      180622.60  # first receiver z in meters
xfin                            =      426783.24  # last receiver x in meters (ignored if only one receiver)
zfin                            =      180622.60  # last receiver z in meters (ignored if only one receiver)
enreg_surf_same_vertical        = .false.         # receivers inside the medium or at the surface
nrec                            =              1  # number of receivers
xdeb                            =      259206.58  # first receiver x in meters
zdeb                            =      170700.61  # first receiver z in meters
xfin                            =      259206.58  # last receiver x in meters (ignored if only one receiver)
zfin                            =      170700.61  # last receiver z in meters (ignored if only one receiver)
enreg_surf_same_vertical        = .false.         # receivers inside the medium or at the surface
nrec                            =              1  # number of receivers
xdeb                            =      375965.02  # first receiver x in meters
zdeb                            =      218298.19  # first receiver z in meters
xfin                            =      375965.02  # last receiver x in meters (ignored if only one receiver)
zfin                            =      218298.19  # last receiver z in meters (ignored if only one receiver)
enreg_surf_same_vertical        = .false.         # receivers inside the medium or at the surface
nrec                            =              1  # number of receivers
xdeb                            =      222831.81  # first receiver x in meters
zdeb                            =      244252.77  # first receiver z in meters
xfin                            =      222831.81  # last receiver x in meters (ignored if only one receiver)
zfin                            =      244252.77  # last receiver z in meters (ignored if only one receiver)
enreg_surf_same_vertical        = .false.         # receivers inside the medium or at the surface
nrec                            =              1  # number of receivers
xdeb                            =      339809.48  # first receiver x in meters
zdeb                            =      225653.41  # first receiver z in meters
xfin                            =      339809.48  # last receiver x in meters (ignored if only one receiver)
zfin                            =      225653.41  # last receiver z in meters (ignored if only one receiver)
enreg_surf_same_vertical        = .false.         # receivers inside the medium or at the surface
nrec                            =              1  # number of receivers
xdeb                            =      337726.91  # first receiver x in meters
zdeb                            =      136797.39  # first receiver z in meters
xfin                            =      337726.91  # last receiver x in meters (ignored if only one receiver)
zfin                            =      136797.39  # last receiver z in meters (ignored if only one receiver)
enreg_surf_same_vertical        = .false.         # receivers inside the medium or at the surface
nrec                            =              1  # number of receivers
xdeb                            =      192628.79  # first receiver x in meters
zdeb                            =      196901.90  # first receiver z in meters
xfin                            =      192628.79  # last receiver x in meters (ignored if only one receiver)
zfin                            =      196901.90  # last receiver z in meters (ignored if only one receiver)
enreg_surf_same_vertical        = .false.         # receivers inside the medium or at the surface
nrec                            =              1  # number of receivers
xdeb                            =      449701.36  # first receiver x in meters
zdeb                            =      109662.22  # first receiver z in meters
xfin                            =      449701.36  # last receiver x in meters (ignored if only one receiver)
zfin                            =      109662.22  # last receiver z in meters (ignored if only one receiver)
enreg_surf_same_vertical        = .false.         # receivers inside the medium or at the surface
nrec                            =              1  # number of receivers
xdeb                            =      139236.32  # first receiver x in meters
zdeb                            =      294549.39  # first receiver z in meters
xfin                            =      139236.32  # last receiver x in meters (ignored if only one receiver)
zfin                            =      294549.39  # last receiver z in meters (ignored if only one receiver)
enreg_surf_same_vertical        = .false.         # receivers inside the medium or at the surface
nrec                            =              1  # number of receivers
xdeb                            =      265292.96  # first receiver x in meters
zdeb                            =      149966.35  # first receiver z in meters
xfin                            =      265292.96  # last receiver x in meters (ignored if only one receiver)
zfin                            =      149966.35  # last receiver z in meters (ignored if only one receiver)
enreg_surf_same_vertical        = .false.         # receivers inside the medium or at the surface
nrec                            =              1  # number of receivers
xdeb                            =      250335.67  # first receiver x in meters
zdeb                            =      386934.77  # first receiver z in meters
xfin                            =      250335.67  # last receiver x in meters (ignored if only one receiver)
zfin                            =      386934.77  # last receiver z in meters (ignored if only one receiver)
enreg_surf_same_vertical        = .false.         # receivers inside the medium or at the surface
nrec                            =              1  # number of receivers
xdeb                            =      189048.18  # first receiver x in meters
zdeb                            =      255222.48  # first receiver z in meters
xfin                            =      189048.18  # last receiver x in meters (ignored if only one receiver)
zfin                            =      255222.48  # last receiver z in meters (ignored if only one receiver)
enreg_surf_same_vertical        = .false.         # receivers inside the medium or at the surface
nrec                            =              1  # number of receivers
xdeb                            =      220629.90  # first receiver x in meters
zdeb                            =      217854.50  # first receiver z in meters
xfin                            =      220629.90  # last receiver x in meters (ignored if only one receiver)
zfin                            =      217854.50  # last receiver z in meters (ignored if only one receiver)
enreg_surf_same_vertical        = .false.         # receivers inside the medium or at the surface
nrec                            =              1  # number of receivers
xdeb                            =      151933.19  # first receiver x in meters
zdeb                            =      152361.56  # first receiver z in meters
xfin                            =      151933.19  # last receiver x in meters (ignored if only one receiver)
zfin                            =      152361.56  # last receiver z in meters (ignored if only one receiver)
enreg_surf_same_vertical        = .false.         # receivers inside the medium or at the surface
nrec                            =              1  # number of receivers
xdeb                            =      229406.25  # first receiver x in meters
zdeb                            =      419289.86  # first receiver z in meters
xfin                            =      229406.25  # last receiver x in meters (ignored if only one receiver)
zfin                            =      419289.86  # last receiver z in meters (ignored if only one receiver)
enreg_surf_same_vertical        = .false.         # receivers inside the medium or at the surface
nrec                            =              1  # number of receivers
xdeb                            =      254186.17  # first receiver x in meters
zdeb                            =      228113.77  # first receiver z in meters
xfin                            =      254186.17  # last receiver x in meters (ignored if only one receiver)
zfin                            =      228113.77  # last receiver z in meters (ignored if only one receiver)
enreg_surf_same_vertical        = .false.         # receivers inside the medium or at the surface
nrec                            =              1  # number of receivers
xdeb                            =      179514.82  # first receiver x in meters
zdeb                            =      233454.02  # first receiver z in meters
xfin                            =      179514.82  # last receiver x in meters (ignored if only one receiver)
zfin                            =      233454.02  # last receiver z in meters (ignored if only one receiver)
enreg_surf_same_vertical        = .false.         # receivers inside the medium or at the surface
nrec                            =              1  # number of receivers
xdeb                            =      377079.72  # first receiver x in meters
zdeb                            =      180008.09  # first receiver z in meters
xfin                            =      377079.72  # last receiver x in meters (ignored if only one receiver)
zfin                            =      180008.09  # last receiver z in meters (ignored if only one receiver)
enreg_surf_same_vertical        = .false.         # receivers inside the medium or at the surface
nrec                            =              1  # number of receivers
xdeb                            =      431824.72  # first receiver x in meters
zdeb                            =      289657.42  # first receiver z in meters
xfin                            =      431824.72  # last receiver x in meters (ignored if only one receiver)
zfin                            =      289657.42  # last receiver z in meters (ignored if only one receiver)
enreg_surf_same_vertical        = .false.         # receivers inside the medium or at the surface
nrec                            =              1  # number of receivers
xdeb                            =      160597.54  # first receiver x in meters
zdeb                            =      246691.44  # first receiver z in meters
xfin                            =      160597.54  # last receiver x in meters (ignored if only one receiver)
zfin                            =      246691.44  # last receiver z in meters (ignored if only one receiver)
enreg_surf_same_vertical        = .false.         # receivers inside the medium or at the surface
nrec                            =              1  # number of receivers
xdeb                            =      322430.28  # first receiver x in meters
zdeb                            =      210763.39  # first receiver z in meters
xfin                            =      322430.28  # last receiver x in meters (ignored if only one receiver)
zfin                            =      210763.39  # last receiver z in meters (ignored if only one receiver)
enreg_surf_same_vertical        = .false.         # receivers inside the medium or at the surface
nrec                            =              1  # number of receivers
xdeb                            =      282594.73  # first receiver x in meters
zdeb                            =      178974.13  # first receiver z in meters
xfin                            =      282594.73  # last receiver x in meters (ignored if only one receiver)
zfin                            =      178974.13  # last receiver z in meters (ignored if only one receiver)
enreg_surf_same_vertical        = .false.         # receivers inside the medium or at the surface
nrec                            =              1  # number of receivers
xdeb                            =      149222.20  # first receiver x in meters
zdeb                            =      230509.81  # first receiver z in meters
xfin                            =      149222.20  # last receiver x in meters (ignored if only one receiver)
zfin                            =      230509.81  # last receiver z in meters (ignored if only one receiver)
enreg_surf_same_vertical        = .false.         # receivers inside the medium or at the surface
nrec                            =              1  # number of receivers
xdeb                            =      182031.73  # first receiver x in meters
zdeb                            =      201488.79  # first receiver z in meters
xfin                            =      182031.73  # last receiver x in meters (ignored if only one receiver)
zfin                            =      201488.79  # last receiver z in meters (ignored if only one receiver)
enreg_surf_same_vertical        = .false.         # receivers inside the medium or at the surface
nrec                            =              1  # number of receivers
xdeb                            =      317678.53  # first receiver x in meters
zdeb                            =      169799.80  # first receiver z in meters
xfin                            =      317678.53  # last receiver x in meters (ignored if only one receiver)
zfin                            =      169799.80  # last receiver z in meters (ignored if only one receiver)
enreg_surf_same_vertical        = .false.         # receivers inside the medium or at the surface
nrec                            =              1  # number of receivers
xdeb                            =      288847.60  # first receiver x in meters
zdeb                            =      106759.73  # first receiver z in meters
xfin                            =      288847.60  # last receiver x in meters (ignored if only one receiver)
zfin                            =      106759.73  # last receiver z in meters (ignored if only one receiver)
enreg_surf_same_vertical        = .false.         # receivers inside the medium or at the surface
nrec                            =              1  # number of receivers
xdeb                            =      428832.45  # first receiver x in meters
zdeb                            =       86397.77  # first receiver z in meters
xfin                            =      428832.45  # last receiver x in meters (ignored if only one receiver)
zfin                            =       86397.77  # last receiver z in meters (ignored if only one receiver)
enreg_surf_same_vertical        = .false.         # receivers inside the medium or at the surface
nrec                            =              1  # number of receivers
xdeb                            =      365051.69  # first receiver x in meters
zdeb                            =      344844.07  # first receiver z in meters
xfin                            =      365051.69  # last receiver x in meters (ignored if only one receiver)
zfin                            =      344844.07  # last receiver z in meters (ignored if only one receiver)
enreg_surf_same_vertical        = .false.         # receivers inside the medium or at the surface
nrec                            =              1  # number of receivers
xdeb                            =      367734.87  # first receiver x in meters
zdeb                            =       69480.37  # first receiver z in meters
xfin                            =      367734.87  # last receiver x in meters (ignored if only one receiver)
zfin                            =       69480.37  # last receiver z in meters (ignored if only one receiver)
enreg_surf_same_vertical        = .false.         # receivers inside the medium or at the surface
nrec                            =              1  # number of receivers
xdeb                            =      192866.69  # first receiver x in meters
zdeb                            =      316136.69  # first receiver z in meters
xfin                            =      192866.69  # last receiver x in meters (ignored if only one receiver)
zfin                            =      316136.69  # last receiver z in meters (ignored if only one receiver)
enreg_surf_same_vertical        = .false.         # receivers inside the medium or at the surface
nrec                            =              1  # number of receivers
xdeb                            =      297833.33  # first receiver x in meters
zdeb                            =       94818.51  # first receiver z in meters
xfin                            =      297833.33  # last receiver x in meters (ignored if only one receiver)
zfin                            =       94818.51  # last receiver z in meters (ignored if only one receiver)
enreg_surf_same_vertical        = .false.         # receivers inside the medium or at the surface
nrec                            =              1  # number of receivers
xdeb                            =      393240.29  # first receiver x in meters
zdeb                            =      120466.81  # first receiver z in meters
xfin                            =      393240.29  # last receiver x in meters (ignored if only one receiver)
zfin                            =      120466.81  # last receiver z in meters (ignored if only one receiver)
enreg_surf_same_vertical        = .false.         # receivers inside the medium or at the surface
nrec                            =              1  # number of receivers
xdeb                            =      163523.62  # first receiver x in meters
zdeb                            =      186666.08  # first receiver z in meters
xfin                            =      163523.62  # last receiver x in meters (ignored if only one receiver)
zfin                            =      186666.08  # last receiver z in meters (ignored if only one receiver)
enreg_surf_same_vertical        = .false.         # receivers inside the medium or at the surface
nrec                            =              1  # number of receivers
xdeb                            =      262073.73  # first receiver x in meters
zdeb                            =      123975.66  # first receiver z in meters
xfin                            =      262073.73  # last receiver x in meters (ignored if only one receiver)
zfin                            =      123975.66  # last receiver z in meters (ignored if only one receiver)
enreg_surf_same_vertical        = .false.         # receivers inside the medium or at the surface
nrec                            =              1  # number of receivers
xdeb                            =      301067.28  # first receiver x in meters
zdeb                            =      362148.80  # first receiver z in meters
xfin                            =      301067.28  # last receiver x in meters (ignored if only one receiver)
zfin                            =      362148.80  # last receiver z in meters (ignored if only one receiver)
enreg_surf_same_vertical        = .false.         # receivers inside the medium or at the surface
nrec                            =              1  # number of receivers
xdeb                            =      344239.18  # first receiver x in meters
zdeb                            =      309946.58  # first receiver z in meters
xfin                            =      344239.18  # last receiver x in meters (ignored if only one receiver)
zfin                            =      309946.58  # last receiver z in meters (ignored if only one receiver)
enreg_surf_same_vertical        = .false.         # receivers inside the medium or at the surface
nrec                            =              1  # number of receivers
xdeb                            =      158089.22  # first receiver x in meters
zdeb                            =      238173.48  # first receiver z in meters
xfin                            =      158089.22  # last receiver x in meters (ignored if only one receiver)
zfin                            =      238173.48  # last receiver z in meters (ignored if only one receiver)
enreg_surf_same_vertical        = .false.         # receivers inside the medium or at the surface
nrec                            =              1  # number of receivers
xdeb                            =      454432.90  # first receiver x in meters
zdeb                            =      236785.66  # first receiver z in meters
xfin                            =      454432.90  # last receiver x in meters (ignored if only one receiver)
zfin                            =      236785.66  # last receiver z in meters (ignored if only one receiver)
enreg_surf_same_vertical        = .false.         # receivers inside the medium or at the surface
nrec                            =              1  # number of receivers
xdeb                            =      150010.03  # first receiver x in meters
zdeb                            =      403167.90  # first receiver z in meters
xfin                            =      150010.03  # last receiver x in meters (ignored if only one receiver)
zfin                            =      403167.90  # last receiver z in meters (ignored if only one receiver)
enreg_surf_same_vertical        = .false.         # receivers inside the medium or at the surface
nrec                            =              1  # number of receivers
xdeb                            =      321133.62  # first receiver x in meters
zdeb                            =      116508.66  # first receiver z in meters
xfin                            =      321133.62  # last receiver x in meters (ignored if only one receiver)
zfin                            =      116508.66  # last receiver z in meters (ignored if only one receiver)
enreg_surf_same_vertical        = .false.         # receivers inside the medium or at the surface
nrec                            =              1  # number of receivers